<?xml version="1.0" encoding="UTF-8"?>

<!-- generated on Tue 13 Apr 2021 04:56:26 PM WEST by Eclipse SUMO netedit Version 1.8.0
<configuration xmlns:xsi="http://www.w3.org/2001/XMLSchema-instance" xsi:noNamespaceSchemaLocation="http://sumo.dlr.de/xsd/netconvertConfiguration.xsd">

    <output>
        <output-file value="/home/mpdr/Projects/feup-mssi/networks/basic_bi.net.xml"/>
    </output>

    <processing>
        <offset.disable-normalization value="true"/>
    </processing>

    <junctions>
        <no-turnarounds value="true"/>
    </junctions>

    <report>
        <aggregate-warnings value="5"/>
    </report>

</configuration>
-->

<net version="1.6" junctionCornerDetail="5" limitTurnSpeed="5.50" xmlns:xsi="http://www.w3.org/2001/XMLSchema-instance" xsi:noNamespaceSchemaLocation="http://sumo.dlr.de/xsd/net_file.xsd">

    <location netOffset="0.00,0.00" convBoundary="-45.95,28.82,29.32,102.00" origBoundary="10000000000.00,10000000000.00,-10000000000.00,-10000000000.00" projParameter="!"/>

    <edge id=":gneJ36_0" function="internal">
        <lane id=":gneJ36_0_0" index="0" disallow="pedestrian tram rail_urban rail rail_electric rail_fast ship" speed="6.55" length="9.10" shape="-10.07,72.67 -10.44,70.22 -11.51,68.46 -13.28,67.40 -15.76,67.04"/>
    </edge>
    <edge id=":gneJ36_1" function="internal">
        <lane id=":gneJ36_1_0" index="0" disallow="pedestrian tram rail_urban rail rail_electric rail_fast ship" speed="13.89" length="14.42" shape="-10.07,72.67 -10.17,58.25"/>
    </edge>
    <edge id=":gneJ36_2" function="internal">
        <lane id=":gneJ36_2_0" index="0" disallow="pedestrian tram rail_urban rail rail_electric rail_fast ship" speed="8.02" length="5.91" shape="-10.07,72.67 -9.54,68.82 -8.51,67.08"/>
    </edge>
    <edge id=":gneJ36_12" function="internal">
        <lane id=":gneJ36_12_0" index="0" disallow="pedestrian tram rail_urban rail rail_electric rail_fast ship" speed="8.02" length="8.28" shape="-8.51,67.08 -7.91,66.06 -5.17,64.39 -1.32,63.80"/>
    </edge>
    <edge id=":gneJ36_3" function="internal">
        <lane id=":gneJ36_3_0" index="0" disallow="pedestrian tram rail_urban rail rail_electric rail_fast ship" speed="6.52" length="9.05" shape="-1.29,67.00 -3.74,67.37 -5.49,68.44 -6.53,70.20 -6.87,72.65"/>
    </edge>
    <edge id=":gneJ36_4" function="internal">
        <lane id=":gneJ36_4_0" index="0" disallow="pedestrian tram rail_urban rail rail_electric rail_fast ship" speed="13.89" length="14.47" shape="-1.29,67.00 -15.76,67.04"/>
    </edge>
    <edge id=":gneJ36_5" function="internal">
        <lane id=":gneJ36_5_0" index="0" disallow="pedestrian tram rail_urban rail rail_electric rail_fast ship" speed="8.01" length="14.23" shape="-1.29,67.00 -5.14,66.49 -7.91,64.86 -9.59,62.11 -10.17,58.25"/>
    </edge>
    <edge id=":gneJ36_6" function="internal">
        <lane id=":gneJ36_6_0" index="0" disallow="pedestrian tram rail_urban rail rail_electric rail_fast ship" speed="6.51" length="9.06" shape="-6.97,58.22 -6.60,60.68 -5.53,62.43 -3.77,63.47 -1.32,63.80"/>
    </edge>
    <edge id=":gneJ36_7" function="internal">
        <lane id=":gneJ36_7_0" index="0" disallow="pedestrian tram rail_urban rail rail_electric rail_fast ship" speed="13.89" length="14.43" shape="-6.97,58.22 -6.87,72.65"/>
    </edge>
    <edge id=":gneJ36_8" function="internal">
        <lane id=":gneJ36_8_0" index="0" disallow="pedestrian tram rail_urban rail rail_electric rail_fast ship" speed="7.98" length="5.95" shape="-6.97,58.22 -7.49,62.09 -8.53,63.85"/>
    </edge>
    <edge id=":gneJ36_13" function="internal">
        <lane id=":gneJ36_13_0" index="0" disallow="pedestrian tram rail_urban rail rail_electric rail_fast ship" speed="7.98" length="8.29" shape="-8.53,63.85 -9.13,64.86 -11.88,66.51 -15.76,67.04"/>
    </edge>
    <edge id=":gneJ36_9" function="internal">
        <lane id=":gneJ36_9_0" index="0" disallow="pedestrian tram rail_urban rail rail_electric rail_fast ship" speed="6.48" length="9.03" shape="-15.74,63.84 -13.29,63.50 -11.54,62.46 -10.50,60.70 -10.17,58.25"/>
    </edge>
    <edge id=":gneJ36_10" function="internal">
        <lane id=":gneJ36_10_0" index="0" disallow="pedestrian tram rail_urban rail rail_electric rail_fast ship" speed="13.89" length="14.42" shape="-15.74,63.84 -1.32,63.80"/>
    </edge>
    <edge id=":gneJ36_11" function="internal">
        <lane id=":gneJ36_11_0" index="0" disallow="pedestrian tram rail_urban rail rail_electric rail_fast ship" speed="8.04" length="14.23" shape="-15.74,63.84 -11.88,64.41 -9.11,66.06 -7.44,68.81 -6.87,72.65"/>
    </edge>

    <edge id="gneE22" from="gneJ35" to="gneJ36" priority="-1">
        <lane id="gneE22_0" index="0" disallow="pedestrian tram rail_urban rail rail_electric rail_fast ship" speed="13.89" length="30.20" shape="-45.94,63.71 -15.74,63.84"/>
    </edge>
    <edge id="gneE23" from="gneJ36" to="gneJ35" priority="-1">
        <lane id="gneE23_0" index="0" disallow="pedestrian tram rail_urban rail rail_electric rail_fast ship" speed="13.89" length="30.20" shape="-15.76,67.04 -45.96,66.91"/>
    </edge>
    <edge id="gneE24" from="gneJ36" to="gneJ37" priority="-1">
        <lane id="gneE24_0" index="0" disallow="pedestrian tram rail_urban rail rail_electric rail_fast ship" speed="13.89" length="29.41" shape="-10.17,58.25 -10.42,28.83"/>
    </edge>
    <edge id="gneE25" from="gneJ37" to="gneJ36" priority="-1">
        <lane id="gneE25_0" index="0" disallow="pedestrian tram rail_urban rail rail_electric rail_fast ship" speed="13.89" length="29.41" shape="-7.22,28.81 -6.97,58.22"/>
    </edge>
    <edge id="gneE26" from="gneJ36" to="gneJ38" priority="-1">
        <lane id="gneE26_0" index="0" disallow="pedestrian tram rail_urban rail rail_electric rail_fast ship" speed="13.89" length="30.62" shape="-1.32,63.80 29.30,63.48"/>
    </edge>
    <edge id="gneE28" from="gneJ38" to="gneJ36" priority="-1">
        <lane id="gneE28_0" index="0" disallow="pedestrian tram rail_urban rail rail_electric rail_fast ship" speed="13.89" length="30.62" shape="29.34,66.68 -1.29,67.00"/>
    </edge>
    <edge id="gneE29" from="gneJ36" to="gneJ40" priority="-1">
        <lane id="gneE29_0" index="0" disallow="pedestrian tram rail_urban rail rail_electric rail_fast ship" speed="13.89" length="29.34" shape="-6.87,72.65 -6.71,101.99"/>
    </edge>
    <edge id="gneE30" from="gneJ40" to="gneJ36" priority="-1">
        <lane id="gneE30_0" index="0" disallow="pedestrian tram rail_urban rail rail_electric rail_fast ship" speed="13.89" length="29.34" shape="-9.91,102.01 -10.07,72.67"/>
    </edge>

    <junction id="gneJ35" type="dead_end" x="-45.95" y="65.31" incLanes="gneE23_0" intLanes="" shape="-45.95,65.31 -45.96,68.51 -45.95,65.31"/>
    <junction id="gneJ36" type="priority" x="-8.51" y="65.48" incLanes="gneE30_0 gneE28_0 gneE25_0 gneE22_0" intLanes=":gneJ36_0_0 :gneJ36_1_0 :gneJ36_12_0 :gneJ36_3_0 :gneJ36_4_0 :gneJ36_5_0 :gneJ36_6_0 :gneJ36_7_0 :gneJ36_13_0 :gneJ36_9_0 :gneJ36_10_0 :gneJ36_11_0" shape="-11.67,72.68 -5.27,72.64 -4.84,70.41 -4.28,69.63 -3.50,69.07 -2.50,68.72 -1.27,68.60 -1.34,62.20 -3.56,61.77 -4.34,61.22 -4.91,60.44 -5.25,59.44 -5.37,58.21 -11.77,58.26 -12.20,60.48 -12.74,61.26 -13.52,61.81 -14.52,62.14 -15.74,62.24 -15.76,68.64 -13.50,69.10 -12.70,69.66 -12.13,70.44 -11.79,71.45">
        <request index="0"  response="000000000000" foes="000100010000" cont="0"/>
        <request index="1"  response="000000000000" foes="111100110000" cont="0"/>
        <request index="2"  response="000011000000" foes="110011110000" cont="1"/>
        <request index="3"  response="000010000000" foes="100010000000" cont="0"/>
        <request index="4"  response="000110000111" foes="100110000111" cont="0"/>
        <request index="5"  response="011110000110" foes="011110000110" cont="0"/>
        <request index="6"  response="000000000000" foes="010000000100" cont="0"/>
        <request index="7"  response="000000000000" foes="110000111100" cont="0"/>
        <request index="8"  response="000000000011" foes="110000110011" cont="1"/>
        <request index="9"  response="000000000010" foes="000000100010" cont="0"/>
        <request index="10" response="000111000110" foes="000111100110" cont="0"/>
        <request index="11" response="000110011110" foes="000110011110" cont="0"/>
    </junction>
    <junction id="gneJ37" type="dead_end" x="-8.82" y="28.82" incLanes="gneE24_0" intLanes="" shape="-8.82,28.82 -12.02,28.85 -8.82,28.82"/>
    <junction id="gneJ38" type="dead_end" x="29.32" y="65.08" incLanes="gneE26_0" intLanes="" shape="29.32,65.08 29.29,61.88 29.32,65.08"/>
    <junction id="gneJ40" type="dead_end" x="-8.31" y="102.00" incLanes="gneE29_0" intLanes="" shape="-8.31,102.00 -5.11,101.98 -8.31,102.00"/>

    <junction id=":gneJ36_12_0" type="internal" x="-8.51" y="67.08" incLanes=":gneJ36_2_0 gneE25_0" intLanes=":gneJ36_4_0 :gneJ36_5_0 :gneJ36_6_0 :gneJ36_7_0 :gneJ36_10_0 :gneJ36_11_0"/>
    <junction id=":gneJ36_13_0" type="internal" x="-8.53" y="63.85" incLanes=":gneJ36_8_0 gneE30_0" intLanes=":gneJ36_0_0 :gneJ36_1_0 :gneJ36_4_0 :gneJ36_5_0 :gneJ36_10_0 :gneJ36_11_0"/>

    <connection from="gneE22" to="gneE24" fromLane="0" toLane="0" via=":gneJ36_9_0" dir="r" state="m"/>
    <connection from="gneE22" to="gneE26" fromLane="0" toLane="0" via=":gneJ36_10_0" dir="s" state="m"/>
    <connection from="gneE22" to="gneE29" fromLane="0" toLane="0" via=":gneJ36_11_0" dir="l" state="m"/>
    <connection from="gneE25" to="gneE26" fromLane="0" toLane="0" via=":gneJ36_6_0" dir="r" state="M"/>
    <connection from="gneE25" to="gneE29" fromLane="0" toLane="0" via=":gneJ36_7_0" dir="s" state="M"/>
    <connection from="gneE25" to="gneE23" fromLane="0" toLane="0" via=":gneJ36_8_0" dir="l" state="m"/>
    <connection from="gneE28" to="gneE29" fromLane="0" toLane="0" via=":gneJ36_3_0" dir="r" state="m"/>
    <connection from="gneE28" to="gneE23" fromLane="0" toLane="0" via=":gneJ36_4_0" dir="s" state="m"/>
    <connection from="gneE28" to="gneE24" fromLane="0" toLane="0" via=":gneJ36_5_0" dir="l" state="m"/>
    <connection from="gneE30" to="gneE23" fromLane="0" toLane="0" via=":gneJ36_0_0" dir="r" state="M"/>
    <connection from="gneE30" to="gneE24" fromLane="0" toLane="0" via=":gneJ36_1_0" dir="s" state="M"/>
    <connection from="gneE30" to="gneE26" fromLane="0" toLane="0" via=":gneJ36_2_0" dir="l" state="m"/>

    <connection from=":gneJ36_0" to="gneE23" fromLane="0" toLane="0" dir="r" state="M"/>
    <connection from=":gneJ36_1" to="gneE24" fromLane="0" toLane="0" dir="s" state="M"/>
    <connection from=":gneJ36_2" to="gneE26" fromLane="0" toLane="0" via=":gneJ36_12_0" dir="l" state="m"/>
    <connection from=":gneJ36_12" to="gneE26" fromLane="0" toLane="0" dir="l" state="M"/>
    <connection from=":gneJ36_3" to="gneE29" fromLane="0" toLane="0" dir="r" state="M"/>
    <connection from=":gneJ36_4" to="gneE23" fromLane="0" toLane="0" dir="s" state="M"/>
    <connection from=":gneJ36_5" to="gneE24" fromLane="0" toLane="0" dir="l" state="M"/>
    <connection from=":gneJ36_6" to="gneE26" fromLane="0" toLane="0" dir="r" state="M"/>
    <connection from=":gneJ36_7" to="gneE29" fromLane="0" toLane="0" dir="s" state="M"/>
    <connection from=":gneJ36_8" to="gneE23" fromLane="0" toLane="0" via=":gneJ36_13_0" dir="l" state="m"/>
    <connection from=":gneJ36_13" to="gneE23" fromLane="0" toLane="0" dir="l" state="M"/>
    <connection from=":gneJ36_9" to="gneE24" fromLane="0" toLane="0" dir="r" state="M"/>
    <connection from=":gneJ36_10" to="gneE26" fromLane="0" toLane="0" dir="s" state="M"/>
    <connection from=":gneJ36_11" to="gneE29" fromLane="0" toLane="0" dir="l" state="M"/>

</net>
