<?xml version="1.0" encoding="UTF-8"?>

<!-- generated on Thu 20 May 2021 07:30:45 PM WEST by Eclipse SUMO netedit Version 1.8.0
<configuration xmlns:xsi="http://www.w3.org/2001/XMLSchema-instance" xsi:noNamespaceSchemaLocation="http://sumo.dlr.de/xsd/netconvertConfiguration.xsd">

    <input>
        <sumo-net-file value="/home/mpdr/Projects/feup-mssi/networks/basic-test.net.xml"/>
    </input>

    <output>
        <output-file value="/home/mpdr/Projects/feup-mssi/networks/basic-test.net.xml"/>
    </output>

    <processing>
        <geometry.min-radius.fix.railways value="false"/>
        <geometry.max-grade.fix value="false"/>
        <offset.disable-normalization value="true"/>
        <lefthand value="false"/>
    </processing>

    <junctions>
        <no-turnarounds value="true"/>
        <junctions.corner-detail value="5"/>
        <junctions.limit-turn-speed value="5.5"/>
        <rectangular-lane-cut value="false"/>
    </junctions>

    <pedestrian>
        <walkingareas value="false"/>
    </pedestrian>

    <netedit>
        <route-files value="/home/mpdr/Projects/feup-mssi/networks/basic-demand.rou.xml"/>
    </netedit>

    <report>
        <aggregate-warnings value="5"/>
    </report>

</configuration>
-->

<routes xmlns:xsi="http://www.w3.org/2001/XMLSchema-instance" xsi:noNamespaceSchemaLocation="http://sumo.dlr.de/xsd/routes_file.xsd">
    <trip id="vehicle_0" depart="0.00" from="-gneE0" to="gneE2"/>
    <trip id="vehicle_1" depart="0.00" from="-gneE0" to="gneE2"/>
    <trip id="vehicle_2" depart="0.00" from="-gneE1" to="gneE0"/>
</routes>
