<?xml version="1.0" encoding="UTF-8"?>

<!-- generated on Thu 10 Jun 2021 11:12:06 PM WEST by Eclipse SUMO netedit Version 1.8.0
<configuration xmlns:xsi="http://www.w3.org/2001/XMLSchema-instance" xsi:noNamespaceSchemaLocation="http://sumo.dlr.de/xsd/netconvertConfiguration.xsd">

    <input>
        <sumo-net-file value="/home/mpdr/Projects/feup-mssi/networks/4lanes/network.net.xml"/>
    </input>

    <output>
        <output-file value="/home/mpdr/Projects/feup-mssi/networks/4lanes/network.net.xml"/>
    </output>

    <processing>
        <geometry.min-radius.fix.railways value="false"/>
        <geometry.max-grade.fix value="false"/>
        <offset.disable-normalization value="true"/>
        <lefthand value="false"/>
    </processing>

    <junctions>
        <no-turnarounds value="true"/>
        <junctions.corner-detail value="5"/>
        <junctions.limit-turn-speed value="5.5"/>
        <rectangular-lane-cut value="false"/>
    </junctions>

    <pedestrian>
        <walkingareas value="false"/>
    </pedestrian>

    <report>
        <aggregate-warnings value="5"/>
    </report>

</configuration>
-->

<net version="1.6" junctionCornerDetail="5" limitTurnSpeed="5.50" xmlns:xsi="http://www.w3.org/2001/XMLSchema-instance" xsi:noNamespaceSchemaLocation="http://sumo.dlr.de/xsd/net_file.xsd">

    <location netOffset="0.00,0.00" convBoundary="-50.00,-50.00,50.00,50.00" origBoundary="-10000000000.00,-10000000000.00,10000000000.00,10000000000.00" projParameter="!"/>

    <edge id=":gneJ0_0" function="internal">
        <lane id=":gneJ0_0_0" index="0" speed="6.51" length="9.03" shape="-11.20,16.80 -11.55,14.35 -12.60,12.60 -14.35,11.55 -16.80,11.20"/>
    </edge>
    <edge id=":gneJ0_1" function="internal">
        <lane id=":gneJ0_1_0" index="0" speed="13.89" length="33.60" shape="-11.20,16.80 -11.20,-16.80"/>
    </edge>
    <edge id=":gneJ0_2" function="internal">
        <lane id=":gneJ0_2_0" index="0" speed="8.00" length="14.19" shape="-8.00,16.80 -8.55,12.95 -10.20,10.20 -12.95,8.55 -16.80,8.00"/>
    </edge>
    <edge id=":gneJ0_3" function="internal">
        <lane id=":gneJ0_3_0" index="0" speed="13.89" length="33.60" shape="-8.00,16.80 -8.00,-16.80"/>
        <lane id=":gneJ0_3_1" index="1" speed="13.89" length="33.60" shape="-4.80,16.80 -4.80,-16.80"/>
    </edge>
    <edge id=":gneJ0_5" function="internal">
        <lane id=":gneJ0_5_0" index="0" speed="12.28" length="34.84" shape="-4.80,16.80 -3.45,7.35 0.60,0.60 7.35,-3.45 16.80,-4.80"/>
    </edge>
    <edge id=":gneJ0_6" function="internal">
        <lane id=":gneJ0_6_0" index="0" speed="13.89" length="33.60" shape="-1.60,16.80 -1.60,-16.80"/>
    </edge>
    <edge id=":gneJ0_7" function="internal">
        <lane id=":gneJ0_7_0" index="0" speed="11.36" length="29.67" shape="-1.60,16.80 -0.45,8.75 3.00,3.00 8.75,-0.45 16.80,-1.60"/>
    </edge>
    <edge id=":gneJ0_8" function="internal">
        <lane id=":gneJ0_8_0" index="0" speed="6.51" length="9.03" shape="16.80,11.20 14.35,11.55 12.60,12.60 11.55,14.35 11.20,16.80"/>
    </edge>
    <edge id=":gneJ0_9" function="internal">
        <lane id=":gneJ0_9_0" index="0" speed="13.89" length="33.60" shape="16.80,11.20 -16.80,11.20"/>
    </edge>
    <edge id=":gneJ0_10" function="internal">
        <lane id=":gneJ0_10_0" index="0" speed="8.00" length="14.19" shape="16.80,8.00 12.95,8.55 10.20,10.20 8.55,12.95 8.00,16.80"/>
    </edge>
    <edge id=":gneJ0_11" function="internal">
        <lane id=":gneJ0_11_0" index="0" speed="13.89" length="33.60" shape="16.80,8.00 -16.80,8.00"/>
        <lane id=":gneJ0_11_1" index="1" speed="13.89" length="33.60" shape="16.80,4.80 -16.80,4.80"/>
    </edge>
    <edge id=":gneJ0_13" function="internal">
        <lane id=":gneJ0_13_0" index="0" speed="12.28" length="34.84" shape="16.80,4.80 7.35,3.45 0.60,-0.60 -3.45,-7.35 -4.80,-16.80"/>
    </edge>
    <edge id=":gneJ0_14" function="internal">
        <lane id=":gneJ0_14_0" index="0" speed="13.89" length="33.60" shape="16.80,1.60 -16.80,1.60"/>
    </edge>
    <edge id=":gneJ0_15" function="internal">
        <lane id=":gneJ0_15_0" index="0" speed="11.36" length="29.67" shape="16.80,1.60 8.75,0.45 3.00,-3.00 -0.45,-8.75 -1.60,-16.80"/>
    </edge>
    <edge id=":gneJ0_16" function="internal">
        <lane id=":gneJ0_16_0" index="0" speed="6.51" length="9.03" shape="11.20,-16.80 11.55,-14.35 12.60,-12.60 14.35,-11.55 16.80,-11.20"/>
    </edge>
    <edge id=":gneJ0_17" function="internal">
        <lane id=":gneJ0_17_0" index="0" speed="13.89" length="33.60" shape="11.20,-16.80 11.20,16.80"/>
    </edge>
    <edge id=":gneJ0_18" function="internal">
        <lane id=":gneJ0_18_0" index="0" speed="8.00" length="14.19" shape="8.00,-16.80 8.55,-12.95 10.20,-10.20 12.95,-8.55 16.80,-8.00"/>
    </edge>
    <edge id=":gneJ0_19" function="internal">
        <lane id=":gneJ0_19_0" index="0" speed="13.89" length="33.60" shape="8.00,-16.80 8.00,16.80"/>
        <lane id=":gneJ0_19_1" index="1" speed="13.89" length="33.60" shape="4.80,-16.80 4.80,16.80"/>
    </edge>
    <edge id=":gneJ0_21" function="internal">
        <lane id=":gneJ0_21_0" index="0" speed="12.28" length="34.84" shape="4.80,-16.80 3.45,-7.35 -0.60,-0.60 -7.35,3.45 -16.80,4.80"/>
    </edge>
    <edge id=":gneJ0_22" function="internal">
        <lane id=":gneJ0_22_0" index="0" speed="13.89" length="33.60" shape="1.60,-16.80 1.60,16.80"/>
    </edge>
    <edge id=":gneJ0_23" function="internal">
        <lane id=":gneJ0_23_0" index="0" speed="11.36" length="29.67" shape="1.60,-16.80 0.45,-8.75 -3.00,-3.00 -8.75,0.45 -16.80,1.60"/>
    </edge>
    <edge id=":gneJ0_24" function="internal">
        <lane id=":gneJ0_24_0" index="0" speed="6.51" length="9.03" shape="-16.80,-11.20 -14.35,-11.55 -12.60,-12.60 -11.55,-14.35 -11.20,-16.80"/>
    </edge>
    <edge id=":gneJ0_25" function="internal">
        <lane id=":gneJ0_25_0" index="0" speed="13.89" length="33.60" shape="-16.80,-11.20 16.80,-11.20"/>
    </edge>
    <edge id=":gneJ0_26" function="internal">
        <lane id=":gneJ0_26_0" index="0" speed="8.00" length="14.19" shape="-16.80,-8.00 -12.95,-8.55 -10.20,-10.20 -8.55,-12.95 -8.00,-16.80"/>
    </edge>
    <edge id=":gneJ0_27" function="internal">
        <lane id=":gneJ0_27_0" index="0" speed="13.89" length="33.60" shape="-16.80,-8.00 16.80,-8.00"/>
        <lane id=":gneJ0_27_1" index="1" speed="13.89" length="33.60" shape="-16.80,-4.80 16.80,-4.80"/>
    </edge>
    <edge id=":gneJ0_29" function="internal">
        <lane id=":gneJ0_29_0" index="0" speed="12.28" length="34.84" shape="-16.80,-4.80 -7.35,-3.45 -0.60,0.60 3.45,7.35 4.80,16.80"/>
    </edge>
    <edge id=":gneJ0_30" function="internal">
        <lane id=":gneJ0_30_0" index="0" speed="13.89" length="33.60" shape="-16.80,-1.60 16.80,-1.60"/>
    </edge>
    <edge id=":gneJ0_31" function="internal">
        <lane id=":gneJ0_31_0" index="0" speed="11.36" length="29.67" shape="-16.80,-1.60 -8.75,-0.45 -3.00,3.00 0.45,8.75 1.60,16.80"/>
    </edge>

    <edge id="-gneE0" from="gneJ1" to="gneJ0" priority="-1">
        <lane id="-gneE0_0" index="0" speed="13.89" length="33.20" shape="-50.00,-11.20 -16.80,-11.20"/>
        <lane id="-gneE0_1" index="1" speed="13.89" length="33.20" shape="-50.00,-8.00 -16.80,-8.00"/>
        <lane id="-gneE0_2" index="2" speed="13.89" length="33.20" shape="-50.00,-4.80 -16.80,-4.80"/>
        <lane id="-gneE0_3" index="3" speed="13.89" length="33.20" shape="-50.00,-1.60 -16.80,-1.60"/>
    </edge>
    <edge id="-gneE1" from="gneJ2" to="gneJ0" priority="-1">
        <lane id="-gneE1_0" index="0" speed="13.89" length="33.20" shape="50.00,11.20 16.80,11.20"/>
        <lane id="-gneE1_1" index="1" speed="13.89" length="33.20" shape="50.00,8.00 16.80,8.00"/>
        <lane id="-gneE1_2" index="2" speed="13.89" length="33.20" shape="50.00,4.80 16.80,4.80"/>
        <lane id="-gneE1_3" index="3" speed="13.89" length="33.20" shape="50.00,1.60 16.80,1.60"/>
    </edge>
    <edge id="-gneE2" from="gneJ3" to="gneJ0" priority="-1">
        <lane id="-gneE2_0" index="0" speed="13.89" length="33.20" shape="-11.20,50.00 -11.20,16.80"/>
        <lane id="-gneE2_1" index="1" speed="13.89" length="33.20" shape="-8.00,50.00 -8.00,16.80"/>
        <lane id="-gneE2_2" index="2" speed="13.89" length="33.20" shape="-4.80,50.00 -4.80,16.80"/>
        <lane id="-gneE2_3" index="3" speed="13.89" length="33.20" shape="-1.60,50.00 -1.60,16.80"/>
    </edge>
    <edge id="-gneE3" from="gneJ4" to="gneJ0" priority="-1">
        <lane id="-gneE3_0" index="0" speed="13.89" length="33.20" shape="11.20,-50.00 11.20,-16.80"/>
        <lane id="-gneE3_1" index="1" speed="13.89" length="33.20" shape="8.00,-50.00 8.00,-16.80"/>
        <lane id="-gneE3_2" index="2" speed="13.89" length="33.20" shape="4.80,-50.00 4.80,-16.80"/>
        <lane id="-gneE3_3" index="3" speed="13.89" length="33.20" shape="1.60,-50.00 1.60,-16.80"/>
    </edge>
    <edge id="gneE0" from="gneJ0" to="gneJ1" priority="-1">
        <lane id="gneE0_0" index="0" speed="13.89" length="33.20" shape="-16.80,11.20 -50.00,11.20"/>
        <lane id="gneE0_1" index="1" speed="13.89" length="33.20" shape="-16.80,8.00 -50.00,8.00"/>
        <lane id="gneE0_2" index="2" speed="13.89" length="33.20" shape="-16.80,4.80 -50.00,4.80"/>
        <lane id="gneE0_3" index="3" speed="13.89" length="33.20" shape="-16.80,1.60 -50.00,1.60"/>
    </edge>
    <edge id="gneE1" from="gneJ0" to="gneJ2" priority="-1">
        <lane id="gneE1_0" index="0" speed="13.89" length="33.20" shape="16.80,-11.20 50.00,-11.20"/>
        <lane id="gneE1_1" index="1" speed="13.89" length="33.20" shape="16.80,-8.00 50.00,-8.00"/>
        <lane id="gneE1_2" index="2" speed="13.89" length="33.20" shape="16.80,-4.80 50.00,-4.80"/>
        <lane id="gneE1_3" index="3" speed="13.89" length="33.20" shape="16.80,-1.60 50.00,-1.60"/>
    </edge>
    <edge id="gneE2" from="gneJ0" to="gneJ3" priority="-1">
        <lane id="gneE2_0" index="0" speed="13.89" length="33.20" shape="11.20,16.80 11.20,50.00"/>
        <lane id="gneE2_1" index="1" speed="13.89" length="33.20" shape="8.00,16.80 8.00,50.00"/>
        <lane id="gneE2_2" index="2" speed="13.89" length="33.20" shape="4.80,16.80 4.80,50.00"/>
        <lane id="gneE2_3" index="3" speed="13.89" length="33.20" shape="1.60,16.80 1.60,50.00"/>
    </edge>
    <edge id="gneE3" from="gneJ0" to="gneJ4" priority="-1">
        <lane id="gneE3_0" index="0" speed="13.89" length="33.20" shape="-11.20,-16.80 -11.20,-50.00"/>
        <lane id="gneE3_1" index="1" speed="13.89" length="33.20" shape="-8.00,-16.80 -8.00,-50.00"/>
        <lane id="gneE3_2" index="2" speed="13.89" length="33.20" shape="-4.80,-16.80 -4.80,-50.00"/>
        <lane id="gneE3_3" index="3" speed="13.89" length="33.20" shape="-1.60,-16.80 -1.60,-50.00"/>
    </edge>

    <junction id="gneJ0" type="allway_stop" x="0.00" y="0.00" incLanes="-gneE2_0 -gneE2_1 -gneE2_2 -gneE2_3 -gneE1_0 -gneE1_1 -gneE1_2 -gneE1_3 -gneE3_0 -gneE3_1 -gneE3_2 -gneE3_3 -gneE0_0 -gneE0_1 -gneE0_2 -gneE0_3" intLanes=":gneJ0_0_0 :gneJ0_1_0 :gneJ0_2_0 :gneJ0_3_0 :gneJ0_3_1 :gneJ0_5_0 :gneJ0_6_0 :gneJ0_7_0 :gneJ0_8_0 :gneJ0_9_0 :gneJ0_10_0 :gneJ0_11_0 :gneJ0_11_1 :gneJ0_13_0 :gneJ0_14_0 :gneJ0_15_0 :gneJ0_16_0 :gneJ0_17_0 :gneJ0_18_0 :gneJ0_19_0 :gneJ0_19_1 :gneJ0_21_0 :gneJ0_22_0 :gneJ0_23_0 :gneJ0_24_0 :gneJ0_25_0 :gneJ0_26_0 :gneJ0_27_0 :gneJ0_27_1 :gneJ0_29_0 :gneJ0_30_0 :gneJ0_31_0" shape="-12.80,16.80 12.80,16.80 13.24,14.58 13.80,13.80 14.58,13.24 15.58,12.91 16.80,12.80 16.80,-12.80 14.58,-13.24 13.80,-13.80 13.24,-14.58 12.91,-15.58 12.80,-16.80 -12.80,-16.80 -13.24,-14.58 -13.80,-13.80 -14.58,-13.24 -15.58,-12.91 -16.80,-12.80 -16.80,12.80 -14.58,13.24 -13.80,13.80 -13.24,14.58 -12.91,15.58">
        <request index="0"  response="00000000000000000101101000000000" foes="00000000000000000101101000000000" cont="0"/>
        <request index="1"  response="11111111101000001111101000000000" foes="11111111101000001111101000000100" cont="0"/>
        <request index="2"  response="00000000000000000101101000000010" foes="00000000000000000101101000000010" cont="0"/>
        <request index="3"  response="11111111101000001111101000000000" foes="11111111101000001111101000000000" cont="0"/>
        <request index="4"  response="11111111101000001111101000000000" foes="11111111101000001111101000000000" cont="0"/>
        <request index="5"  response="11111010010110101111101001000000" foes="11111010010110101111101001000000" cont="0"/>
        <request index="6"  response="11111111101000001111101000000000" foes="11111111101000001111101000100000" cont="0"/>
        <request index="7"  response="11111010010110101111101000000000" foes="11111010010110101111101000000000" cont="0"/>
        <request index="8"  response="00000000010110100000000000000000" foes="00000000010110100000000000000000" cont="0"/>
        <request index="9"  response="10100000111110100000000011111111" foes="10100000111110100000010011111111" cont="0"/>
        <request index="10" response="00000000010110100000001000000000" foes="00000000010110100000001000000000" cont="0"/>
        <request index="11" response="10100000111110100000000011111111" foes="10100000111110100000000011111111" cont="0"/>
        <request index="12" response="10100000111110100000000011111111" foes="10100000111110100000000011111111" cont="0"/>
        <request index="13" response="01011010111110100100000011111010" foes="01011010111110100100000011111010" cont="0"/>
        <request index="14" response="10100000111110100000000011111111" foes="10100000111110100010000011111111" cont="0"/>
        <request index="15" response="01011010111110100000000011111010" foes="01011010111110100000000011111010" cont="0"/>
        <request index="16" response="01011010000000000000000000000000" foes="01011010000000000000000000000000" cont="0"/>
        <request index="17" response="11111010000000001111111110100000" foes="11111010000001001111111110100000" cont="0"/>
        <request index="18" response="01011010000000100000000000000000" foes="01011010000000100000000000000000" cont="0"/>
        <request index="19" response="11111010000000001111111110100000" foes="11111010000000001111111110100000" cont="0"/>
        <request index="20" response="11111010000000001111111110100000" foes="11111010000000001111111110100000" cont="0"/>
        <request index="21" response="11111010010000001111101001011010" foes="11111010010000001111101001011010" cont="0"/>
        <request index="22" response="11111010000000001111111110100000" foes="11111010001000001111111110100000" cont="0"/>
        <request index="23" response="11111010000000001111101001011010" foes="11111010000000001111101001011010" cont="0"/>
        <request index="24" response="00000000000000000000000001011010" foes="00000000000000000000000001011010" cont="0"/>
        <request index="25" response="00000000111111111010000011111010" foes="00000100111111111010000011111010" cont="0"/>
        <request index="26" response="00000010000000000000000001011010" foes="00000010000000000000000001011010" cont="0"/>
        <request index="27" response="00000000111111111010000011111010" foes="00000000111111111010000011111010" cont="0"/>
        <request index="28" response="00000000111111111010000011111010" foes="00000000111111111010000011111010" cont="0"/>
        <request index="29" response="01000000111110100101101011111010" foes="01000000111110100101101011111010" cont="0"/>
        <request index="30" response="00000000111111111010000011111010" foes="00100000111111111010000011111010" cont="0"/>
        <request index="31" response="00000000111110100101101011111010" foes="00000000111110100101101011111010" cont="0"/>
    </junction>
    <junction id="gneJ1" type="dead_end" x="-50.00" y="0.00" incLanes="gneE0_0 gneE0_1 gneE0_2 gneE0_3" intLanes="" shape="-50.00,0.00 -50.00,12.80 -50.00,0.00"/>
    <junction id="gneJ2" type="dead_end" x="50.00" y="0.00" incLanes="gneE1_0 gneE1_1 gneE1_2 gneE1_3" intLanes="" shape="50.00,0.00 50.00,-12.80 50.00,0.00"/>
    <junction id="gneJ3" type="dead_end" x="0.00" y="50.00" incLanes="gneE2_0 gneE2_1 gneE2_2 gneE2_3" intLanes="" shape="0.00,50.00 12.80,50.00 0.00,50.00"/>
    <junction id="gneJ4" type="dead_end" x="0.00" y="-50.00" incLanes="gneE3_0 gneE3_1 gneE3_2 gneE3_3" intLanes="" shape="0.00,-50.00 -12.80,-50.00 0.00,-50.00"/>

    <connection from="-gneE0" to="gneE3" fromLane="0" toLane="0" via=":gneJ0_24_0" dir="r" state="w"/>
    <connection from="-gneE0" to="gneE1" fromLane="0" toLane="0" via=":gneJ0_25_0" dir="s" state="w"/>
    <connection from="-gneE0" to="gneE3" fromLane="1" toLane="1" via=":gneJ0_26_0" dir="r" state="w"/>
    <connection from="-gneE0" to="gneE1" fromLane="1" toLane="1" via=":gneJ0_27_0" dir="s" state="w"/>
    <connection from="-gneE0" to="gneE1" fromLane="2" toLane="2" via=":gneJ0_27_1" dir="s" state="w"/>
    <connection from="-gneE0" to="gneE2" fromLane="2" toLane="2" via=":gneJ0_29_0" dir="l" state="w"/>
    <connection from="-gneE0" to="gneE1" fromLane="3" toLane="3" via=":gneJ0_30_0" dir="s" state="w"/>
    <connection from="-gneE0" to="gneE2" fromLane="3" toLane="3" via=":gneJ0_31_0" dir="l" state="w"/>
    <connection from="-gneE1" to="gneE2" fromLane="0" toLane="0" via=":gneJ0_8_0" dir="r" state="w"/>
    <connection from="-gneE1" to="gneE0" fromLane="0" toLane="0" via=":gneJ0_9_0" dir="s" state="w"/>
    <connection from="-gneE1" to="gneE2" fromLane="1" toLane="1" via=":gneJ0_10_0" dir="r" state="w"/>
    <connection from="-gneE1" to="gneE0" fromLane="1" toLane="1" via=":gneJ0_11_0" dir="s" state="w"/>
    <connection from="-gneE1" to="gneE0" fromLane="2" toLane="2" via=":gneJ0_11_1" dir="s" state="w"/>
    <connection from="-gneE1" to="gneE3" fromLane="2" toLane="2" via=":gneJ0_13_0" dir="l" state="w"/>
    <connection from="-gneE1" to="gneE0" fromLane="3" toLane="3" via=":gneJ0_14_0" dir="s" state="w"/>
    <connection from="-gneE1" to="gneE3" fromLane="3" toLane="3" via=":gneJ0_15_0" dir="l" state="w"/>
    <connection from="-gneE2" to="gneE0" fromLane="0" toLane="0" via=":gneJ0_0_0" dir="r" state="w"/>
    <connection from="-gneE2" to="gneE3" fromLane="0" toLane="0" via=":gneJ0_1_0" dir="s" state="w"/>
    <connection from="-gneE2" to="gneE0" fromLane="1" toLane="1" via=":gneJ0_2_0" dir="r" state="w"/>
    <connection from="-gneE2" to="gneE3" fromLane="1" toLane="1" via=":gneJ0_3_0" dir="s" state="w"/>
    <connection from="-gneE2" to="gneE3" fromLane="2" toLane="2" via=":gneJ0_3_1" dir="s" state="w"/>
    <connection from="-gneE2" to="gneE1" fromLane="2" toLane="2" via=":gneJ0_5_0" dir="l" state="w"/>
    <connection from="-gneE2" to="gneE3" fromLane="3" toLane="3" via=":gneJ0_6_0" dir="s" state="w"/>
    <connection from="-gneE2" to="gneE1" fromLane="3" toLane="3" via=":gneJ0_7_0" dir="l" state="w"/>
    <connection from="-gneE3" to="gneE1" fromLane="0" toLane="0" via=":gneJ0_16_0" dir="r" state="w"/>
    <connection from="-gneE3" to="gneE2" fromLane="0" toLane="0" via=":gneJ0_17_0" dir="s" state="w"/>
    <connection from="-gneE3" to="gneE1" fromLane="1" toLane="1" via=":gneJ0_18_0" dir="r" state="w"/>
    <connection from="-gneE3" to="gneE2" fromLane="1" toLane="1" via=":gneJ0_19_0" dir="s" state="w"/>
    <connection from="-gneE3" to="gneE2" fromLane="2" toLane="2" via=":gneJ0_19_1" dir="s" state="w"/>
    <connection from="-gneE3" to="gneE0" fromLane="2" toLane="2" via=":gneJ0_21_0" dir="l" state="w"/>
    <connection from="-gneE3" to="gneE2" fromLane="3" toLane="3" via=":gneJ0_22_0" dir="s" state="w"/>
    <connection from="-gneE3" to="gneE0" fromLane="3" toLane="3" via=":gneJ0_23_0" dir="l" state="w"/>

    <connection from=":gneJ0_0" to="gneE0" fromLane="0" toLane="0" dir="r" state="M"/>
    <connection from=":gneJ0_1" to="gneE3" fromLane="0" toLane="0" dir="s" state="M"/>
    <connection from=":gneJ0_2" to="gneE0" fromLane="0" toLane="1" dir="r" state="M"/>
    <connection from=":gneJ0_3" to="gneE3" fromLane="0" toLane="1" dir="s" state="M"/>
    <connection from=":gneJ0_3" to="gneE3" fromLane="1" toLane="2" dir="s" state="M"/>
    <connection from=":gneJ0_5" to="gneE1" fromLane="0" toLane="2" dir="l" state="M"/>
    <connection from=":gneJ0_6" to="gneE3" fromLane="0" toLane="3" dir="s" state="M"/>
    <connection from=":gneJ0_7" to="gneE1" fromLane="0" toLane="3" dir="l" state="M"/>
    <connection from=":gneJ0_8" to="gneE2" fromLane="0" toLane="0" dir="r" state="M"/>
    <connection from=":gneJ0_9" to="gneE0" fromLane="0" toLane="0" dir="s" state="M"/>
    <connection from=":gneJ0_10" to="gneE2" fromLane="0" toLane="1" dir="r" state="M"/>
    <connection from=":gneJ0_11" to="gneE0" fromLane="0" toLane="1" dir="s" state="M"/>
    <connection from=":gneJ0_11" to="gneE0" fromLane="1" toLane="2" dir="s" state="M"/>
    <connection from=":gneJ0_13" to="gneE3" fromLane="0" toLane="2" dir="l" state="M"/>
    <connection from=":gneJ0_14" to="gneE0" fromLane="0" toLane="3" dir="s" state="M"/>
    <connection from=":gneJ0_15" to="gneE3" fromLane="0" toLane="3" dir="l" state="M"/>
    <connection from=":gneJ0_16" to="gneE1" fromLane="0" toLane="0" dir="r" state="M"/>
    <connection from=":gneJ0_17" to="gneE2" fromLane="0" toLane="0" dir="s" state="M"/>
    <connection from=":gneJ0_18" to="gneE1" fromLane="0" toLane="1" dir="r" state="M"/>
    <connection from=":gneJ0_19" to="gneE2" fromLane="0" toLane="1" dir="s" state="M"/>
    <connection from=":gneJ0_19" to="gneE2" fromLane="1" toLane="2" dir="s" state="M"/>
    <connection from=":gneJ0_21" to="gneE0" fromLane="0" toLane="2" dir="l" state="M"/>
    <connection from=":gneJ0_22" to="gneE2" fromLane="0" toLane="3" dir="s" state="M"/>
    <connection from=":gneJ0_23" to="gneE0" fromLane="0" toLane="3" dir="l" state="M"/>
    <connection from=":gneJ0_24" to="gneE3" fromLane="0" toLane="0" dir="r" state="M"/>
    <connection from=":gneJ0_25" to="gneE1" fromLane="0" toLane="0" dir="s" state="M"/>
    <connection from=":gneJ0_26" to="gneE3" fromLane="0" toLane="1" dir="r" state="M"/>
    <connection from=":gneJ0_27" to="gneE1" fromLane="0" toLane="1" dir="s" state="M"/>
    <connection from=":gneJ0_27" to="gneE1" fromLane="1" toLane="2" dir="s" state="M"/>
    <connection from=":gneJ0_29" to="gneE2" fromLane="0" toLane="2" dir="l" state="M"/>
    <connection from=":gneJ0_30" to="gneE1" fromLane="0" toLane="3" dir="s" state="M"/>
    <connection from=":gneJ0_31" to="gneE2" fromLane="0" toLane="3" dir="l" state="M"/>

</net>
