<?xml version="1.0" encoding="UTF-8"?>

<!-- generated on Thu 27 May 2021 06:33:53 PM WEST by Eclipse SUMO netedit Version 1.8.0
<configuration xmlns:xsi="http://www.w3.org/2001/XMLSchema-instance" xsi:noNamespaceSchemaLocation="http://sumo.dlr.de/xsd/netconvertConfiguration.xsd">

    <input>
        <sumo-net-file value="/home/mpdr/Projects/feup-mssi/networks/basic-test.net.xml"/>
    </input>

    <output>
        <output-file value="/home/mpdr/Projects/feup-mssi/networks/basic-test-2lanes.net.xml"/>
    </output>

    <processing>
        <geometry.min-radius.fix.railways value="false"/>
        <geometry.max-grade.fix value="false"/>
        <offset.disable-normalization value="true"/>
        <lefthand value="false"/>
    </processing>

    <junctions>
        <no-turnarounds value="true"/>
        <junctions.corner-detail value="5"/>
        <junctions.limit-turn-speed value="5.5"/>
        <rectangular-lane-cut value="false"/>
    </junctions>

    <pedestrian>
        <walkingareas value="false"/>
    </pedestrian>

    <netedit>
        <route-files value="/home/mpdr/Projects/feup-mssi/networks/basic-demand-2lanes.rou.xml"/>
    </netedit>

    <report>
        <aggregate-warnings value="5"/>
    </report>

</configuration>
-->

<net version="1.6" junctionCornerDetail="5" limitTurnSpeed="5.50" xmlns:xsi="http://www.w3.org/2001/XMLSchema-instance" xsi:noNamespaceSchemaLocation="http://sumo.dlr.de/xsd/net_file.xsd">

    <location netOffset="0.00,0.00" convBoundary="-50.00,-50.00,50.00,50.00" origBoundary="-10000000000.00,-10000000000.00,10000000000.00,10000000000.00" projParameter="!"/>

    <edge id=":gneJ0_0" function="internal">
        <lane id=":gneJ0_0_0" index="0" speed="6.51" length="9.03" shape="-4.80,10.40 -5.15,7.95 -6.20,6.20 -7.95,5.15 -10.40,4.80"/>
    </edge>
    <edge id=":gneJ0_1" function="internal">
        <lane id=":gneJ0_1_0" index="0" speed="13.89" length="20.80" shape="-4.80,10.40 -4.80,-10.40"/>
        <lane id=":gneJ0_1_1" index="1" speed="13.89" length="20.80" shape="-1.60,10.40 -1.60,-10.40"/>
    </edge>
    <edge id=":gneJ0_3" function="internal">
        <lane id=":gneJ0_3_0" index="0" speed="9.26" length="19.35" shape="-1.60,10.40 -0.85,5.15 1.40,1.40 5.15,-0.85 10.40,-1.60"/>
    </edge>
    <edge id=":gneJ0_4" function="internal">
        <lane id=":gneJ0_4_0" index="0" speed="6.51" length="9.03" shape="10.40,4.80 7.95,5.15 6.20,6.20 5.15,7.95 4.80,10.40"/>
    </edge>
    <edge id=":gneJ0_5" function="internal">
        <lane id=":gneJ0_5_0" index="0" speed="13.89" length="20.80" shape="10.40,4.80 -10.40,4.80"/>
        <lane id=":gneJ0_5_1" index="1" speed="13.89" length="20.80" shape="10.40,1.60 -10.40,1.60"/>
    </edge>
    <edge id=":gneJ0_7" function="internal">
        <lane id=":gneJ0_7_0" index="0" speed="9.26" length="19.35" shape="10.40,1.60 5.15,0.85 1.40,-1.40 -0.85,-5.15 -1.60,-10.40"/>
    </edge>
    <edge id=":gneJ0_8" function="internal">
        <lane id=":gneJ0_8_0" index="0" speed="6.51" length="9.03" shape="4.80,-10.40 5.15,-7.95 6.20,-6.20 7.95,-5.15 10.40,-4.80"/>
    </edge>
    <edge id=":gneJ0_9" function="internal">
        <lane id=":gneJ0_9_0" index="0" speed="13.89" length="20.80" shape="4.80,-10.40 4.80,10.40"/>
        <lane id=":gneJ0_9_1" index="1" speed="13.89" length="20.80" shape="1.60,-10.40 1.60,10.40"/>
    </edge>
    <edge id=":gneJ0_11" function="internal">
        <lane id=":gneJ0_11_0" index="0" speed="9.26" length="19.35" shape="1.60,-10.40 0.85,-5.15 -1.40,-1.40 -5.15,0.85 -10.40,1.60"/>
    </edge>
    <edge id=":gneJ0_12" function="internal">
        <lane id=":gneJ0_12_0" index="0" speed="6.51" length="9.03" shape="-10.40,-4.80 -7.95,-5.15 -6.20,-6.20 -5.15,-7.95 -4.80,-10.40"/>
    </edge>
    <edge id=":gneJ0_13" function="internal">
        <lane id=":gneJ0_13_0" index="0" speed="13.89" length="20.80" shape="-10.40,-4.80 10.40,-4.80"/>
        <lane id=":gneJ0_13_1" index="1" speed="13.89" length="20.80" shape="-10.40,-1.60 10.40,-1.60"/>
    </edge>
    <edge id=":gneJ0_15" function="internal">
        <lane id=":gneJ0_15_0" index="0" speed="9.84" length="21.99" shape="-10.40,-1.60 -3.75,-0.85 1.00,1.40 3.85,5.15 4.80,10.40"/>
    </edge>
    <edge id=":gneJ0_16" function="internal">
        <lane id=":gneJ0_16_0" index="0" speed="9.26" length="19.35" shape="-10.40,-1.60 -5.15,-0.85 -1.40,1.40 0.85,5.15 1.60,10.40"/>
    </edge>

    <edge id="-gneE0" from="gneJ1" to="gneJ0" priority="-1">
        <lane id="-gneE0_0" index="0" speed="13.89" length="39.60" shape="-50.00,-4.80 -10.40,-4.80"/>
        <lane id="-gneE0_1" index="1" speed="13.89" length="39.60" shape="-50.00,-1.60 -10.40,-1.60"/>
    </edge>
    <edge id="-gneE1" from="gneJ2" to="gneJ0" priority="-1">
        <lane id="-gneE1_0" index="0" speed="13.89" length="39.60" shape="50.00,4.80 10.40,4.80"/>
        <lane id="-gneE1_1" index="1" speed="13.89" length="39.60" shape="50.00,1.60 10.40,1.60"/>
    </edge>
    <edge id="-gneE2" from="gneJ3" to="gneJ0" priority="-1">
        <lane id="-gneE2_0" index="0" speed="13.89" length="39.60" shape="-4.80,50.00 -4.80,10.40"/>
        <lane id="-gneE2_1" index="1" speed="13.89" length="39.60" shape="-1.60,50.00 -1.60,10.40"/>
    </edge>
    <edge id="-gneE3" from="gneJ4" to="gneJ0" priority="-1">
        <lane id="-gneE3_0" index="0" speed="13.89" length="39.60" shape="4.80,-50.00 4.80,-10.40"/>
        <lane id="-gneE3_1" index="1" speed="13.89" length="39.60" shape="1.60,-50.00 1.60,-10.40"/>
    </edge>
    <edge id="gneE0" from="gneJ0" to="gneJ1" priority="-1">
        <lane id="gneE0_0" index="0" speed="13.89" length="39.60" shape="-10.40,4.80 -50.00,4.80"/>
        <lane id="gneE0_1" index="1" speed="13.89" length="39.60" shape="-10.40,1.60 -50.00,1.60"/>
    </edge>
    <edge id="gneE1" from="gneJ0" to="gneJ2" priority="-1">
        <lane id="gneE1_0" index="0" speed="13.89" length="39.60" shape="10.40,-4.80 50.00,-4.80"/>
        <lane id="gneE1_1" index="1" speed="13.89" length="39.60" shape="10.40,-1.60 50.00,-1.60"/>
    </edge>
    <edge id="gneE2" from="gneJ0" to="gneJ3" priority="-1">
        <lane id="gneE2_0" index="0" speed="13.89" length="39.60" shape="4.80,10.40 4.80,50.00"/>
        <lane id="gneE2_1" index="1" speed="13.89" length="39.60" shape="1.60,10.40 1.60,50.00"/>
    </edge>
    <edge id="gneE3" from="gneJ0" to="gneJ4" priority="-1">
        <lane id="gneE3_0" index="0" speed="13.89" length="39.60" shape="-4.80,-10.40 -4.80,-50.00"/>
        <lane id="gneE3_1" index="1" speed="13.89" length="39.60" shape="-1.60,-10.40 -1.60,-50.00"/>
    </edge>

    <junction id="gneJ0" type="allway_stop" x="0.00" y="0.00" incLanes="-gneE2_0 -gneE2_1 -gneE1_0 -gneE1_1 -gneE3_0 -gneE3_1 -gneE0_0 -gneE0_1" intLanes=":gneJ0_0_0 :gneJ0_1_0 :gneJ0_1_1 :gneJ0_3_0 :gneJ0_4_0 :gneJ0_5_0 :gneJ0_5_1 :gneJ0_7_0 :gneJ0_8_0 :gneJ0_9_0 :gneJ0_9_1 :gneJ0_11_0 :gneJ0_12_0 :gneJ0_13_0 :gneJ0_13_1 :gneJ0_15_0 :gneJ0_16_0" shape="-6.40,10.40 6.40,10.40 6.84,8.18 7.40,7.40 8.18,6.84 9.18,6.51 10.40,6.40 10.40,-6.40 8.18,-6.84 7.40,-7.40 6.84,-8.18 6.51,-9.18 6.40,-10.40 -6.40,-10.40 -6.84,-8.18 -7.40,-7.40 -8.18,-6.84 -9.18,-6.51 -10.40,-6.40 -10.40,6.40 -8.18,6.84 -7.40,7.40 -6.84,8.18 -6.51,9.18">
        <request index="0"  response="00000000001100000" foes="00000000001100000" cont="0"/>
        <request index="1"  response="11111100011100000" foes="11111100011100000" cont="0"/>
        <request index="2"  response="11111100011100000" foes="11111100011100000" cont="0"/>
        <request index="3"  response="11110011011100000" foes="11110011011100000" cont="0"/>
        <request index="4"  response="11000011000000000" foes="11000011000000000" cont="0"/>
        <request index="5"  response="11000111000001111" foes="11000111000001111" cont="0"/>
        <request index="6"  response="11000111000001111" foes="11000111000001111" cont="0"/>
        <request index="7"  response="00110111000001110" foes="00110111000001110" cont="0"/>
        <request index="8"  response="00110000000000000" foes="00110000000000000" cont="0"/>
        <request index="9"  response="11110000011111000" foes="11110000011111000" cont="0"/>
        <request index="10" response="11110000011111000" foes="11110000011111000" cont="0"/>
        <request index="11" response="11110000011100110" foes="11110000011100110" cont="0"/>
        <request index="12" response="00000000000000110" foes="00000000000000110" cont="0"/>
        <request index="13" response="00000111110001110" foes="00000111110001110" cont="0"/>
        <request index="14" response="00000111110001110" foes="00000111110001110" cont="0"/>
        <request index="15" response="00000111001111110" foes="00000111001111110" cont="0"/>
        <request index="16" response="00000111001111110" foes="00000111001111110" cont="0"/>
    </junction>
    <junction id="gneJ1" type="dead_end" x="-50.00" y="0.00" incLanes="gneE0_0 gneE0_1" intLanes="" shape="-50.00,0.00 -50.00,6.40 -50.00,0.00"/>
    <junction id="gneJ2" type="dead_end" x="50.00" y="0.00" incLanes="gneE1_0 gneE1_1" intLanes="" shape="50.00,0.00 50.00,-6.40 50.00,0.00"/>
    <junction id="gneJ3" type="dead_end" x="0.00" y="50.00" incLanes="gneE2_0 gneE2_1" intLanes="" shape="0.00,50.00 6.40,50.00 0.00,50.00"/>
    <junction id="gneJ4" type="dead_end" x="0.00" y="-50.00" incLanes="gneE3_0 gneE3_1" intLanes="" shape="0.00,-50.00 -6.40,-50.00 0.00,-50.00"/>

    <connection from="-gneE0" to="gneE3" fromLane="0" toLane="0" via=":gneJ0_12_0" dir="r" state="w"/>
    <connection from="-gneE0" to="gneE1" fromLane="0" toLane="0" via=":gneJ0_13_0" dir="s" state="w"/>
    <connection from="-gneE0" to="gneE1" fromLane="1" toLane="1" via=":gneJ0_13_1" dir="s" state="w"/>
    <connection from="-gneE0" to="gneE2" fromLane="1" toLane="0" via=":gneJ0_15_0" dir="l" state="w"/>
    <connection from="-gneE0" to="gneE2" fromLane="1" toLane="1" via=":gneJ0_16_0" dir="l" state="w"/>
    <connection from="-gneE1" to="gneE2" fromLane="0" toLane="0" via=":gneJ0_4_0" dir="r" state="w"/>
    <connection from="-gneE1" to="gneE0" fromLane="0" toLane="0" via=":gneJ0_5_0" dir="s" state="w"/>
    <connection from="-gneE1" to="gneE0" fromLane="1" toLane="1" via=":gneJ0_5_1" dir="s" state="w"/>
    <connection from="-gneE1" to="gneE3" fromLane="1" toLane="1" via=":gneJ0_7_0" dir="l" state="w"/>
    <connection from="-gneE2" to="gneE0" fromLane="0" toLane="0" via=":gneJ0_0_0" dir="r" state="w"/>
    <connection from="-gneE2" to="gneE3" fromLane="0" toLane="0" via=":gneJ0_1_0" dir="s" state="w"/>
    <connection from="-gneE2" to="gneE3" fromLane="1" toLane="1" via=":gneJ0_1_1" dir="s" state="w"/>
    <connection from="-gneE2" to="gneE1" fromLane="1" toLane="1" via=":gneJ0_3_0" dir="l" state="w"/>
    <connection from="-gneE3" to="gneE1" fromLane="0" toLane="0" via=":gneJ0_8_0" dir="r" state="w"/>
    <connection from="-gneE3" to="gneE2" fromLane="0" toLane="0" via=":gneJ0_9_0" dir="s" state="w"/>
    <connection from="-gneE3" to="gneE2" fromLane="1" toLane="1" via=":gneJ0_9_1" dir="s" state="w"/>
    <connection from="-gneE3" to="gneE0" fromLane="1" toLane="1" via=":gneJ0_11_0" dir="l" state="w"/>

    <connection from=":gneJ0_0" to="gneE0" fromLane="0" toLane="0" dir="r" state="M"/>
    <connection from=":gneJ0_1" to="gneE3" fromLane="0" toLane="0" dir="s" state="M"/>
    <connection from=":gneJ0_1" to="gneE3" fromLane="1" toLane="1" dir="s" state="M"/>
    <connection from=":gneJ0_3" to="gneE1" fromLane="0" toLane="1" dir="l" state="M"/>
    <connection from=":gneJ0_4" to="gneE2" fromLane="0" toLane="0" dir="r" state="M"/>
    <connection from=":gneJ0_5" to="gneE0" fromLane="0" toLane="0" dir="s" state="M"/>
    <connection from=":gneJ0_5" to="gneE0" fromLane="1" toLane="1" dir="s" state="M"/>
    <connection from=":gneJ0_7" to="gneE3" fromLane="0" toLane="1" dir="l" state="M"/>
    <connection from=":gneJ0_8" to="gneE1" fromLane="0" toLane="0" dir="r" state="M"/>
    <connection from=":gneJ0_9" to="gneE2" fromLane="0" toLane="0" dir="s" state="M"/>
    <connection from=":gneJ0_9" to="gneE2" fromLane="1" toLane="1" dir="s" state="M"/>
    <connection from=":gneJ0_11" to="gneE0" fromLane="0" toLane="1" dir="l" state="M"/>
    <connection from=":gneJ0_12" to="gneE3" fromLane="0" toLane="0" dir="r" state="M"/>
    <connection from=":gneJ0_13" to="gneE1" fromLane="0" toLane="0" dir="s" state="M"/>
    <connection from=":gneJ0_13" to="gneE1" fromLane="1" toLane="1" dir="s" state="M"/>
    <connection from=":gneJ0_15" to="gneE2" fromLane="0" toLane="0" dir="l" state="M"/>
    <connection from=":gneJ0_16" to="gneE2" fromLane="0" toLane="1" dir="l" state="M"/>

</net>
